Version 4
SHEET 1 880 756
WIRE 208 0 160 0
WIRE 304 0 272 0
WIRE 160 48 160 0
WIRE 192 48 160 48
WIRE 304 48 304 0
WIRE 304 48 272 48
WIRE 64 128 -432 128
WIRE 160 128 160 48
WIRE 160 128 144 128
WIRE 192 128 160 128
WIRE 304 144 304 48
WIRE 304 144 256 144
WIRE 192 160 176 160
WIRE 304 176 304 144
WIRE 496 176 304 176
WIRE 64 208 0 208
WIRE 176 208 176 160
WIRE 176 208 144 208
WIRE 0 224 0 208
WIRE 176 224 176 208
WIRE 496 288 496 256
WIRE 176 304 0 304
WIRE 176 320 176 304
WIRE 368 368 352 368
WIRE 288 400 288 368
WIRE 288 400 256 400
WIRE -32 416 -128 416
WIRE 368 416 368 368
WIRE 400 416 368 416
WIRE -432 432 -432 128
WIRE -288 432 -432 432
WIRE -176 432 -224 432
WIRE 288 448 288 400
WIRE 368 448 368 416
WIRE -288 464 -288 448
WIRE -288 464 -320 464
WIRE -288 480 -288 464
WIRE -176 544 -176 480
WIRE -144 544 -176 544
WIRE -128 544 -128 496
WIRE -128 544 -144 544
WIRE -32 544 -32 416
WIRE 32 544 -32 544
WIRE 256 544 256 400
WIRE 256 544 112 544
WIRE 288 544 256 544
WIRE -432 560 -432 512
WIRE -320 560 -320 464
WIRE -320 560 -432 560
WIRE -144 560 -144 544
WIRE 400 560 400 416
WIRE 400 560 352 560
WIRE 496 560 496 368
WIRE 496 560 400 560
WIRE 256 576 208 576
WIRE 288 576 256 576
WIRE 128 624 128 576
WIRE 256 624 256 576
WIRE 256 704 128 704
WIRE 256 736 256 704
FLAG 176 320 0
FLAG 256 736 0
FLAG -288 480 0
FLAG -144 560 0
SYMBOL Opamps\\opamp 224 80 R0
SYMATTR InstName U1
SYMATTR SpiceLine2 GBW=500k
SYMBOL res 160 112 R90
WINDOW 0 0 56 VBottom 2
WINDOW 3 32 56 VTop 2
SYMATTR InstName R1
SYMATTR Value 2k
SYMBOL res 288 32 R90
WINDOW 0 0 56 VBottom 2
WINDOW 3 32 56 VTop 2
SYMATTR InstName R2
SYMATTR Value 2k
SYMBOL res 160 192 R90
WINDOW 0 0 56 VBottom 2
WINDOW 3 32 56 VTop 2
SYMATTR InstName R3
SYMATTR Value 240k
SYMBOL res 192 320 R180
WINDOW 0 36 76 Left 2
WINDOW 3 36 40 Left 2
SYMATTR InstName R4
SYMATTR Value 100k
SYMBOL voltage 0 208 R0
WINDOW 123 0 0 Left 2
WINDOW 39 0 0 Left 2
SYMATTR InstName V1
SYMATTR Value 7.5
SYMBOL cap 272 -16 R90
WINDOW 0 0 32 VBottom 2
WINDOW 3 32 32 VTop 2
SYMATTR InstName C1
SYMATTR Value 100n
SYMBOL Opamps\\opamp 320 496 R0
SYMATTR InstName U2
SYMATTR SpiceLine2 GBW=500k
SYMBOL res 384 432 R90
WINDOW 0 0 56 VBottom 2
WINDOW 3 32 56 VTop 2
SYMATTR InstName R5
SYMATTR Value 2k
SYMBOL cap 352 352 R90
WINDOW 0 0 32 VBottom 2
WINDOW 3 32 32 VTop 2
SYMATTR InstName C2
SYMATTR Value 100n
SYMBOL res 272 720 R180
WINDOW 0 36 76 Left 2
WINDOW 3 36 40 Left 2
SYMATTR InstName R6
SYMATTR Value 4k
SYMBOL res 112 592 R270
WINDOW 0 32 56 VTop 2
WINDOW 3 0 56 VBottom 2
SYMATTR InstName R7
SYMATTR Value 2k
SYMBOL res 16 560 R270
WINDOW 0 32 56 VTop 2
WINDOW 3 0 56 VBottom 2
SYMATTR InstName R8
SYMATTR Value 2k
SYMBOL voltage 128 608 R0
WINDOW 123 0 0 Left 2
WINDOW 39 0 0 Left 2
SYMATTR InstName V3
SYMATTR Value 3.3
SYMBOL voltage -432 416 R0
WINDOW 123 24 124 Left 2
WINDOW 39 0 0 Left 2
SYMATTR Value2 AC 1
SYMATTR InstName V4
SYMATTR Value PULSE(0 3.3 0 1n 1n 4u 10u)
SYMBOL res 480 160 R0
SYMATTR InstName R9
SYMATTR Value 32
SYMBOL ind 480 272 R0
SYMATTR InstName L1
SYMATTR Value 1m
SYMBOL Digital\\inv -288 368 R0
SYMATTR InstName A1
SYMBOL e -128 400 R0
SYMATTR InstName E1
SYMATTR Value 3.3
TEXT -280 24 Left 2 !.lib "opamp.sub"
TEXT -280 56 Left 2 !.tran 0 5m 0 100n
