Version 4
SHEET 1 880 680
WIRE 128 -64 -80 -64
WIRE 128 -48 128 -64
WIRE 192 -48 160 -48
WIRE 256 -48 224 -48
WIRE 320 -48 288 -48
WIRE 384 -48 352 -48
WIRE 160 16 160 -48
WIRE 160 16 128 16
WIRE 224 16 224 -48
WIRE 224 16 192 16
WIRE 288 16 288 -48
WIRE 288 16 256 16
WIRE 352 16 352 -48
WIRE 352 16 320 16
WIRE -80 48 -80 -64
WIRE 384 48 384 16
WIRE 384 48 352 48
WIRE 352 80 352 48
WIRE 256 96 16 96
WIRE 16 144 16 96
WIRE 32 144 16 144
WIRE 160 160 96 160
WIRE 304 160 240 160
WIRE -272 176 -304 176
WIRE 0 176 -192 176
WIRE 32 176 0 176
WIRE -304 192 -304 176
WIRE 0 208 0 176
WIRE 256 208 256 96
WIRE 352 208 352 176
WIRE 352 208 256 208
WIRE 352 224 352 208
WIRE -80 288 -80 128
WIRE -304 304 -304 272
WIRE 0 304 0 288
WIRE 352 320 352 304
FLAG 352 320 0
FLAG -80 288 0
FLAG 0 304 0
FLAG -304 304 0
SYMBOL nmos 304 80 R0
SYMATTR InstName M1
SYMATTR Value FDZ7064N
SYMBOL voltage -80 32 R0
SYMATTR InstName V1
SYMBOL Opamps\\opamp 64 96 R0
SYMATTR InstName U1
SYMBOL res 256 144 R90
WINDOW 0 0 56 VBottom 2
WINDOW 3 32 56 VTop 2
SYMATTR InstName R1
SYMATTR Value 100
SYMBOL res 368 320 R180
WINDOW 0 36 76 Left 2
WINDOW 3 36 40 Left 2
SYMATTR InstName R2
SYMBOL diode 368 -48 R0
SYMATTR InstName D1
SYMATTR Value 1N4148
SYMBOL diode 304 -48 R0
SYMATTR InstName D2
SYMATTR Value 1N4148
SYMBOL diode 240 -48 R0
SYMATTR InstName D3
SYMATTR Value 1N4148
SYMBOL diode 176 -48 R0
SYMATTR InstName D4
SYMATTR Value 1N4148
SYMBOL diode 112 -48 R0
SYMATTR InstName D5
SYMATTR Value 1N4148
SYMBOL res -176 160 R90
WINDOW 0 0 56 VBottom 2
WINDOW 3 32 56 VTop 2
SYMATTR InstName R3
SYMATTR Value 5k38
SYMBOL res 16 304 R180
WINDOW 0 36 76 Left 2
WINDOW 3 36 40 Left 2
SYMATTR InstName R4
SYMATTR Value 1k69
SYMBOL voltage -304 176 R0
SYMATTR InstName V2
TEXT -338 344 Left 2 !.tran 0.1
TEXT -344 392 Left 2 !.lib "opamp.ckt"
